Version 4.1
SHEET 1 1700 712
WIRE 544 128 528 128
WIRE 544 160 544 128
WIRE 608 160 544 160
WIRE 736 176 672 176
WIRE 912 176 736 176
WIRE 1056 176 912 176
WIRE 416 192 16 192
WIRE 512 192 480 192
WIRE 592 192 512 192
WIRE 608 192 592 192
WIRE 512 208 512 192
WIRE 592 272 592 192
WIRE 736 272 736 176
WIRE 736 272 592 272
WIRE 16 304 16 192
WIRE 400 320 208 320
WIRE 688 336 640 336
WIRE 784 336 768 336
WIRE 800 336 784 336
WIRE 1008 336 880 336
WIRE 640 352 640 336
WIRE 208 400 208 320
WIRE 784 400 784 336
WIRE 864 400 784 400
WIRE 976 416 928 416
WIRE 1008 416 1008 336
WIRE 1008 416 976 416
WIRE 1040 416 1008 416
WIRE 1072 416 1040 416
WIRE 816 432 784 432
WIRE 864 432 816 432
WIRE 16 448 16 384
WIRE 400 448 400 320
WIRE 528 448 480 448
WIRE 784 448 784 432
WIRE 784 448 528 448
WIRE 208 528 208 480
WIRE 528 528 528 512
WIRE 816 560 816 432
WIRE 976 560 976 416
WIRE 976 560 816 560
FLAG -256 128 0
FLAG -288 272 0
FLAG -256 48 +3v3
FLAG -288 192 -3v3
FLAG 896 384 +3v3
FLAG 896 448 -3v3
FLAG 528 528 0
FLAG 512 288 0
FLAG 528 128 0
FLAG 640 208 -3v3
FLAG 640 144 +3v3
FLAG 1040 416 Vout2
FLAG 16 448 0
FLAG 208 528 0
FLAG 912 176 Vout1
FLAG 640 352 0
SYMBOL voltage -256 32 R0
WINDOW 123 0 0 Left 0
WINDOW 39 0 0 Left 0
SYMATTR InstName V2
SYMATTR Value 3v3
SYMBOL voltage -288 176 R0
WINDOW 123 0 0 Left 0
WINDOW 39 0 0 Left 0
SYMATTR InstName V3
SYMATTR Value 3v3
SYMBOL OpAmps\\OP07 896 352 R0
SYMATTR InstName U2
SYMBOL res 496 432 R90
WINDOW 0 0 56 VBottom 2
WINDOW 3 32 56 VTop 2
SYMATTR InstName R2
SYMATTR Value 1000
SYMBOL cap 512 448 R0
SYMATTR InstName C1
SYMATTR Value 27µ
SYMBOL OpAmps\\OP07 640 112 R0
SYMATTR InstName U1
SYMBOL cap 480 176 R90
WINDOW 0 0 32 VBottom 2
WINDOW 3 32 32 VTop 2
SYMATTR InstName C2
SYMATTR Value 500µ
SYMBOL res 496 192 R0
SYMATTR InstName R4
SYMATTR Value 1000
SYMBOL voltage 16 288 R0
WINDOW 123 24 124 Left 2
WINDOW 39 0 0 Left 0
SYMATTR Value2 AC 1
SYMATTR InstName V1
SYMATTR Value ""
SYMBOL voltage 208 384 R0
WINDOW 123 24 124 Left 2
WINDOW 39 0 0 Left 0
SYMATTR Value2 AC 1
SYMATTR InstName V4
SYMATTR Value ""
SYMBOL res 784 320 R90
WINDOW 0 0 56 VBottom 2
WINDOW 3 32 56 VTop 2
SYMATTR InstName R1
SYMATTR Value 100
SYMBOL res 896 320 R90
WINDOW 0 0 56 VBottom 2
WINDOW 3 32 56 VTop 2
SYMATTR InstName R3
SYMATTR Value 100k
TEXT -120 -224 Left 2 ;.tran 1
TEXT -64 112 Left 2 !.ac dec 10 1 100k
