Version 4.1
SHEET 1 1188 712
WIRE 368 192 16 192
WIRE 768 272 592 272
WIRE 928 304 864 304
WIRE 864 320 864 304
WIRE 864 336 864 320
WIRE 640 384 528 384
WIRE 656 384 640 384
WIRE 768 400 768 272
WIRE 768 400 704 400
WIRE 832 400 768 400
WIRE 928 400 928 304
WIRE 16 416 16 272
WIRE 592 416 592 272
WIRE 640 416 592 416
WIRE 1008 416 992 416
WIRE 1120 416 1008 416
WIRE 1184 416 1120 416
WIRE 832 432 832 400
WIRE 928 432 912 432
WIRE 944 432 928 432
WIRE 368 448 368 192
WIRE 400 448 368 448
WIRE 528 448 480 448
WIRE 592 448 592 416
WIRE 592 448 528 448
WIRE 912 528 912 432
WIRE 928 528 912 528
WIRE 944 528 928 528
WIRE 1008 528 1008 416
FLAG -256 128 0
FLAG -288 272 0
FLAG -256 48 +3v3
FLAG -288 192 -3v3
FLAG 672 368 +3v3
FLAG 672 432 -3v3
FLAG 528 384 0
FLAG 528 512 0
FLAG 16 416 0
FLAG 864 320 0
FLAG 1120 416 Vout
FLAG 960 384 +3v3
FLAG 960 448 -3v3
SYMBOL voltage 16 176 R0
WINDOW 123 24 124 Left 2
WINDOW 39 0 0 Left 0
SYMATTR Value2 AC 100
SYMATTR InstName V1
SYMATTR Value ""
SYMBOL voltage -256 32 R0
WINDOW 123 0 0 Left 0
WINDOW 39 0 0 Left 0
SYMATTR InstName V2
SYMATTR Value 3v3
SYMBOL voltage -288 176 R0
WINDOW 123 0 0 Left 0
WINDOW 39 0 0 Left 0
SYMATTR InstName V3
SYMATTR Value 3v3
SYMBOL OpAmps\\OP07 672 336 R0
SYMATTR InstName U2
SYMBOL res 496 432 R90
WINDOW 0 0 56 VBottom 2
WINDOW 3 32 56 VTop 2
SYMATTR InstName R2
SYMATTR Value 1000
SYMBOL cap 512 448 R0
SYMATTR InstName C3
SYMATTR Value 0.04m
SYMBOL OpAmps\\OP07 960 352 R0
SYMATTR InstName U1
SYMBOL res 928 416 R90
WINDOW 0 0 56 VBottom 2
WINDOW 3 32 56 VTop 2
SYMATTR InstName R1
SYMATTR Value 1000
SYMBOL res 1024 512 R90
WINDOW 0 0 56 VBottom 2
WINDOW 3 32 56 VTop 2
SYMATTR InstName R3
SYMATTR Value 10
TEXT -128 112 Left 2 !.ac dec 10 0.0001 1000000
