Version 4.1
SHEET 1 1252 680
WIRE 928 -224 848 -224
WIRE 1072 -224 992 -224
WIRE 208 -192 208 -224
WIRE 224 -192 208 -192
WIRE 336 -192 336 -224
WIRE 848 -128 848 -224
WIRE 864 -128 848 -128
WIRE 928 -128 864 -128
WIRE 1072 -128 1072 -224
WIRE 1072 -128 1008 -128
WIRE 224 -64 224 -112
WIRE 336 -64 336 -112
WIRE 960 0 960 -16
WIRE 592 16 400 16
WIRE 672 16 656 16
WIRE 752 16 672 16
WIRE 816 16 800 16
WIRE 864 16 864 -128
WIRE 864 16 816 16
WIRE 928 16 864 16
WIRE 1072 32 1072 -128
WIRE 1072 32 992 32
WIRE 1168 32 1168 16
WIRE 1168 32 1072 32
WIRE 928 48 864 48
WIRE 944 48 928 48
WIRE 976 64 960 64
WIRE 400 80 400 16
WIRE 864 112 864 48
WIRE 1168 112 864 112
WIRE 976 128 976 64
WIRE 864 160 864 112
WIRE 0 240 0 224
WIRE 400 240 400 160
WIRE 400 256 400 240
WIRE 0 368 0 240
FLAG 0 368 0
FLAG 864 160 0
FLAG 224 -64 0
FLAG 336 -64 0
FLAG 208 -224 V+
FLAG 336 -224 V-
FLAG 960 -16 V+
FLAG 976 128 V-
FLAG 1168 16 output
FLAG 400 240 0
SYMBOL voltage 0 144 R0
WINDOW 3 -895 144 Left 2
WINDOW 123 -740 419 Left 2
WINDOW 39 0 0 Left 0
SYMATTR InstName V1
SYMATTR Value PWL file=C:\Users\dhiid\Downloads\emg_hand_manipulation\channel1.pwl
SYMBOL res 688 0 R90
WINDOW 0 0 56 VBottom 2
WINDOW 3 32 56 VTop 2
SYMATTR InstName R1
SYMATTR Value 1000
SYMBOL cap 816 0 R90
WINDOW 0 0 32 VBottom 2
WINDOW 3 32 32 VTop 2
SYMATTR InstName C1
SYMATTR Value 0.13
SYMBOL OpAmps\\OP07 960 -32 R0
SYMATTR InstName U1
SYMBOL voltage 224 -208 R0
WINDOW 123 0 0 Left 0
WINDOW 39 0 0 Left 0
SYMATTR InstName V2
SYMATTR Value 5
SYMBOL voltage 336 -208 R0
WINDOW 123 0 0 Left 0
WINDOW 39 0 0 Left 0
SYMATTR InstName V3
SYMATTR Value -5
SYMBOL cap 928 -208 R270
WINDOW 0 32 32 VTop 2
WINDOW 3 0 32 VBottom 2
SYMATTR InstName C2
SYMATTR Value 2.82
SYMBOL res 1024 -144 R90
WINDOW 0 0 56 VBottom 2
WINDOW 3 32 56 VTop 2
SYMATTR InstName R2
SYMATTR Value 1000
SYMBOL res 1152 16 R0
SYMATTR InstName R3
SYMATTR Value 1000
SYMBOL voltage 400 64 R0
WINDOW 123 24 124 Left 2
WINDOW 39 0 0 Left 0
SYMATTR InstName V4
SYMATTR Value ""
SYMATTR Value2 AC 1
TEXT -88 -272 Left 2 ;.tran 70
TEXT -72 -32 Left 2 !.ac oct 10 10 100
